@<TRIPOS>MOLECULE
indinavir
 92 96 0 0 0
SMALL
GASTEIGER
Energy = 0

@<TRIPOS>ATOM
      1  N1         9.2800   23.7630    3.0040 N.3   902  MK1902     -0.2950
      2  C1         9.4980   23.9830    4.4590 C.3   902  MK1902      0.0234
      3  C2        10.5910   24.9050    4.9620 C.3   902  MK1902      0.1002
      4  C3        10.5910   24.8640    6.4660 C.2   902  MK1902      0.2319
      5  O1        10.9370   23.8490    7.0570 O.2   902  MK1902     -0.2740
      6  N2        10.1930   25.9530    7.0940 N.am  902  MK1902     -0.3092
      7  C4        10.1450   26.2500    8.4900 C.3   902  MK1902      0.0262
      8  C5         9.3790   27.5770    8.6410 C.3   902  MK1902     -0.0442
      9  C6        11.3980   26.3470    9.0740 C.3   902  MK1902     -0.0442
     10  C7         9.3640   25.2830    9.2680 C.3   902  MK1902     -0.0442
     11  N3        11.8190   24.2820    4.3550 N.3   902  MK1902     -0.2868
     12  C8        11.7530   23.7760    2.9610 C.3   902  MK1902      0.0125
     13  C9        10.4400   23.1820    2.4930 C.3   902  MK1902      0.0121
     14  C10       13.0830   24.9630    4.5520 C.3   902  MK1902      0.0258
     15  C11       14.2030   24.0640    5.0780 C.3   902  MK1902      0.0686
     16  O2        15.2420   24.8840    4.6340 O.3   902  MK1902     -0.3905
     17  C12       14.4400   23.7610    6.5690 C.3   902  MK1902     -0.0142
     18  C13       15.5730   22.8210    7.0050 C.3   902  MK1902      0.0419
     19  C14       15.6440   22.6640    8.5340 C.3   902  MK1902     -0.0165
     20  C15       16.7330   21.7500    8.9610 C.ar  902  MK1902     -0.0466
     21  C16       18.0580   21.9160    8.5530 C.ar  902  MK1902     -0.0586
     22  C17       19.0370   21.0160    8.9470 C.ar  902  MK1902     -0.0615
     23  C18       18.6730   19.9390    9.7580 C.ar  902  MK1902     -0.0617
     24  C19       17.3470   19.7730   10.1760 C.ar  902  MK1902     -0.0615
     25  C20       16.3740   20.6870    9.7720 C.ar  902  MK1902     -0.0586
     26  C21       15.4470   21.4400    6.3730 C.2   902  MK1902      0.2170
     27  O3        14.3670   20.8310    6.3970 O.2   902  MK1902     -0.2755
     28  N4        16.5830   20.9130    5.9240 N.am  902  MK1902     -0.3057
     29  C22       16.6920   19.5000    5.6040 C.3   902  MK1902      0.0748
     30  C23       18.0670   18.9450    5.9360 C.3   902  MK1902      0.0816
     31  O4        19.0610   19.9380    5.7290 O.3   902  MK1902     -0.3893
     32  C24       18.2260   17.7260    5.0570 C.3   902  MK1902      0.0008
     33  C25       17.4760   17.9040    3.7600 C.ar  902  MK1902     -0.0398
     34  C26       17.5000   17.3630    2.4960 C.ar  902  MK1902     -0.0582
     35  C27       16.6130   17.8720    1.5410 C.ar  902  MK1902     -0.0615
     36  C28       15.7220   18.9060    1.8650 C.ar  902  MK1902     -0.0614
     37  C29       15.6830   19.4790    3.1290 C.ar  902  MK1902     -0.0565
     38  C30       16.5040   19.0610    4.1280 C.ar  902  MK1902     -0.0215
     39  C31        8.0330   23.1000    2.6040 C.3   902  MK1902      0.0256
     40  C32        6.6660   23.7390    2.8760 C.ar  902  MK1902     -0.0153
     41  C33        6.1580   24.8080    2.1240 C.ar  902  MK1902      0.0320
     42  N5         4.9110   25.4300    2.3000 N.ar  902  MK1902     -0.2629
     43  C34        4.2070   24.8390    3.3480 C.ar  902  MK1902      0.0276
     44  C35        4.6540   23.7740    4.1360 C.ar  902  MK1902     -0.0433
     45  C36        5.9050   23.2110    3.8970 C.ar  902  MK1902     -0.0545
     46 H           9.6248   23.0286    4.9259 H     902  MK1902      0.0447
     47 H           8.6183   24.5308    4.7254 H     902  MK1902      0.0447
     48 H          10.4975   25.9386    4.7016 H     902  MK1902      0.0571
     49 H           9.8785   26.6775    6.5062 H     902  MK1902      0.1492
     50 H           9.8866   28.3463    8.0975 H     902  MK1902      0.0250
     51 H           9.3002   27.8438    9.6742 H     902  MK1902      0.0250
     52 H           8.3916   27.4601    8.2458 H     902  MK1902      0.0250
     53 H          11.9937   27.0477    8.5271 H     902  MK1902      0.0250
     54 H          11.8743   25.3890    9.0902 H     902  MK1902      0.0250
     55 H          11.2906   26.6883   10.0824 H     902  MK1902      0.0250
     56 H           8.3880   25.1857    8.8405 H     902  MK1902      0.0250
     57 H           9.2920   25.5997   10.2875 H     902  MK1902      0.0250
     58 H           9.8553   24.3328    9.2430 H     902  MK1902      0.0250
     59 H          12.5296   23.0540    2.8181 H     902  MK1902      0.0439
     60 H          11.8694   24.6539    2.3605 H     902  MK1902      0.0439
     61 H          10.4042   23.2123    1.4240 H     902  MK1902      0.0439
     62 H          10.4386   22.1840    2.8789 H     902  MK1902      0.0439
     63 H          12.9434   25.7864    5.2209 H     902  MK1902      0.0452
     64 H          13.3967   25.2974    3.5852 H     902  MK1902      0.0452
     65 H          14.0321   23.0560    4.7624 H     902  MK1902      0.0606
     66 H          15.1795   25.7493    5.0678 H     902  MK1902      0.2098
     67 H          13.5240   23.4012    6.9889 H     902  MK1902      0.0298
     68 H          14.7821   24.7061    6.9360 H     902  MK1902      0.0298
     69 H          16.4752   23.2823    6.6613 H     902  MK1902      0.0398
     70 H          14.7061   22.3061    8.9043 H     902  MK1902      0.0320
     71 H          15.8591   23.6288    8.9435 H     902  MK1902      0.0320
     72 H          18.3113   22.7161    7.9525 H     902  MK1902      0.0620
     73 H          20.0164   21.1400    8.6464 H     902  MK1902      0.0618
     74 H          19.3897   19.2575   10.0527 H     902  MK1902      0.0618
     75 H          17.0905   18.9772   10.7809 H     902  MK1902      0.0618
     76 H          15.3943   20.5718   10.0752 H     902  MK1902      0.0620
     77 H          17.3686   21.4944    5.8057 H     902  MK1902      0.1494
     78 H          15.8791   19.1280    6.1920 H     902  MK1902      0.0574
     79 H          18.1753   18.6650    6.9630 H     902  MK1902      0.0618
     80 H          19.0253   20.2451    4.8096 H     902  MK1902      0.2099
     81 H          17.8720   16.8557    5.5691 H     902  MK1902      0.0339
     82 H          19.2651   17.6021    4.8337 H     902  MK1902      0.0339
     83 H          18.1549   16.6017    2.2580 H     902  MK1902      0.0620
     84 H          16.6143   17.4816    0.5857 H     902  MK1902      0.0618
     85 H          15.0743   19.2521    1.1400 H     902  MK1902      0.0618
     86 H          15.0133   20.2420    3.3147 H     902  MK1902      0.0621
     87 H           8.0300   22.1146    3.0210 H     902  MK1902      0.0476
     88 H           8.0899   23.1667    1.5376 H     902  MK1902      0.0476
     89 H           6.7584   25.1730    1.3682 H     902  MK1902      0.0833
     90 H           3.2726   25.2216    3.5613 H     902  MK1902      0.0829
     91 H           4.0577   23.4058    4.8936 H     902  MK1902      0.0633
     92 H           6.2516   22.4232    4.4664 H     902  MK1902      0.0622
@<TRIPOS>BOND
     1     1     2    1
     2     1    13    1
     3     1    39    1
     4     2     3    1
     5     3     4    1
     6     3    11    1
     7     4     5    2
     8     4     6   am
     9     6     7    1
    10     7     8    1
    11     7     9    1
    12     7    10    1
    13    11    12    1
    14    11    14    1
    15    12    13    1
    16    14    15    1
    17    15    16    1
    18    15    17    1
    19    17    18    1
    20    18    19    1
    21    18    26    1
    22    19    20    1
    23    20    21   ar
    24    20    25   ar
    25    21    22   ar
    26    22    23   ar
    27    23    24   ar
    28    24    25   ar
    29    26    27    2
    30    26    28   am
    31    28    29    1
    32    29    30    1
    33    29    38    1
    34    30    31    1
    35    30    32    1
    36    32    33    1
    37    33    34   ar
    38    33    38   ar
    39    34    35   ar
    40    35    36   ar
    41    36    37   ar
    42    37    38   ar
    43    39    40    1
    44    40    41   ar
    45    40    45   ar
    46    41    42   ar
    47    42    43   ar
    48    43    44   ar
    49    44    45   ar
    50     2    46    1
    51     2    47    1
    52     3    48    1
    53     6    49    1
    54     8    50    1
    55     8    51    1
    56     8    52    1
    57     9    53    1
    58     9    54    1
    59     9    55    1
    60    10    56    1
    61    10    57    1
    62    10    58    1
    63    12    59    1
    64    12    60    1
    65    13    61    1
    66    13    62    1
    67    14    63    1
    68    14    64    1
    69    15    65    1
    70    16    66    1
    71    17    67    1
    72    17    68    1
    73    18    69    1
    74    19    70    1
    75    19    71    1
    76    21    72    1
    77    22    73    1
    78    23    74    1
    79    24    75    1
    80    25    76    1
    81    28    77    1
    82    29    78    1
    83    30    79    1
    84    31    80    1
    85    32    81    1
    86    32    82    1
    87    34    83    1
    88    35    84    1
    89    36    85    1
    90    37    86    1
    91    39    87    1
    92    39    88    1
    93    41    89    1
    94    43    90    1
    95    44    91    1
    96    45    92    1
